MKMK_DEVSTAGE=
MKMK_WARNING=
MKMK_ZIPJAVASOURCE=
GProtected=E:\users\SCM\ANN19XPORTFOLIO423\.\ENOXModelApp\ProtectedGenerated\win_b64
IProtected=E:\users\SCM\ANN19XPORTFOLIO423\.\ENOXModelApp\ProtectedInterfaces
F_ENOXModelApp=mkFrameworkCode "E:\users\SCM\ANN19XPORTFOLIO423\.\ENOXModelApp" ENOXModelApp - -
MKMK_BSCMAKE=
GLocal=E:\users\SCM\ANN19XPORTFOLIO423\.\ENOXModelApp\Overview.mweb\LocalGenerated\win_b64
ILocal=E:\users\SCM\ANN19XPORTFOLIO423\.\ENOXModelApp\Overview.mweb\LocalInterfaces
IPublic=E:\users\SCM\ANN19XPORTFOLIO423\.\ENOXModelApp\PublicInterfaces
GPublic=E:\users\SCM\ANN19XPORTFOLIO423\.\ENOXModelApp\PublicGenerated\win_b64
MODSOURCES=E:\users\SCM\ANN19XPORTFOLIO423\.\ENOXModelApp\Overview.mweb
MOD_INCPATH="E:\users\SCM\ANN19XPORTFOLIO423\.\ENOXModelApp\Overview.mweb\src" "E:\users\SCM\ANN19XPORTFOLIO423\.\ENOXModelApp\Overview.mweb\LocalInterfaces" "E:\users\SCM\ANN19XPORTFOLIO423\.\ENOXModelApp\Overview.mweb\LocalGenerated\win_b64"
GPrivate=E:\users\SCM\ANN19XPORTFOLIO423\.\ENOXModelApp\PrivateGenerated\win_b64
IPrivate=E:\users\SCM\ANN19XPORTFOLIO423\.\ENOXModelApp\PrivateInterfaces
WSPATH=E:\users\SCM\ANN19XPORTFOLIO423\.
M_Overview=mkWeb "E:\users\SCM\ANN19XPORTFOLIO423\.\ENOXModelApp\Overview.mweb" Overview - - - - - -
MODPATH=E:\users\SCM\ANN19XPORTFOLIO423\.\ENOXModelApp\Overview.mweb
FWNAME=ENOXModelApp
WSROOT=E:\users\SCM\ANN19XPORTFOLIO423\.
CONTNAME=Overview
WSSOURCES=E:\users\SCM\ANN19XPORTFOLIO423\.
TARGETS_VALID=grammar1st grammar2nd webgrammar1st webgrammar2nd webbuild webbuilddoc jsdoc jsruler
WSENAME_msg=ENOXModelApp\Overview.mweb
MODDIRNAME=Overview.mweb
NAME=E:\users\SCM\ANN19XPORTFOLIO423\.\ENOXModelApp\Overview.mweb\Objects\win_b64\.mkdata.mkb
STEPS_TO_BUILD=DoxGrammar1st cscimplementjs grammar1st grammar2nd jsdoc jsruler webbuild webbuilddoc webgrammar1st webgrammar2nd
WSEKEY=M_Overview
WSSOURCES_Concat="E:\users\SCM\ANN19XPORTFOLIO423\." "\\dsone\rnd\R423rel\BSF\." "\\dsone\rnd\R423rel\BSFTST\."
FW_AllPreq=BSFBuildtimeData,21DD1140;ENO6WDocumentManagementClient,21EE0041;ENOCfgBaseUX,21DD2151;ENOCollabBaseServicesWebUI,21ED0041;ENOCollabCommandsWebUI,21DD0041;ENOLifecycleWebUI,21DD0041;ENOPAD3DViewer,21DD2151;ENOPropertiesServicesWebUI,21DD0041;ENOXAppsFoundationsUX,21EE0041;ENOXAppsScaffolding,21EE0041;ENOXAppsVersionExplorerUX,21EE0041;ENOXConfigCommonUX,21DD2151;ENOXConfiguratorUX,21DD2151;ENOXPortfolioAppsCommon,21DD0041;ENOXPortfolioFoundationsUX,21DD0041;TagNavigator,21EE0041;UWAClient,21ED0041;VENCKEditor,21EE0041;VENHandlebars,21EE0041;WApplicationFrame,21DD0041;WebFoundation,21ED0041;WebUX,21DD0041;WebUiAssets,21ED0041;WebappsUtils,21ED0041;AfrApps,20DD0041;CAT3DPlayAnnotations,20EE2151;CAT3DPlayWeb,20EE0141;CATCreaDesWebUIServices,20EE2151;CATWebUXPreferences,20EE2151;CSICommandBinderWeb,20DD2151;CSIViewModelWeb,20EE2151;ENOCollaborativeServicesWebUI,20EE0041;ENOFilterBIUX,20EE2151;ENOLifecycleWebUIComponents,20DD2151;ENOLockWebUI,20EE0041;ENONewWebUI,20EE0041;ENOStrRefinementUX,20EE2151;ExperienceKernelWeb,20DD2151;GEOTypings,20EE2151;MathematicsWeb,20DD2151;PADUtils,20DD2151;RenderingMaterialWeb,20EE2151;SPAContentOptimizerWeb,20EE2151;SocialUIComponents,20EE2151;TopBar,20DD0141;UWPClient,20DD2151;VCXWebExperienceBase,20DD2151;VCXWebKeyFramingEngine,20DD2151;VCXWebLevelExploder,20EE2151;VCXWebPropertyModel,20DD2151;VEN6WJQueryPlugins,20EE0141;VENCrossroads,20EE0041;VENPDFjs,20EE2151;VENRBTree,20DD2151;VENRouter5,20DD2151;W3DDComponents,20EE2151;W3DXComponents,20DD2151;W3DXConfiguration,20EE2151;Web3DUX,20EE2151;WebAppsFoundations,20DD0141;WebClientSession,20DD2151;WebComponentModeler,20DD2151;WebInfra,20EE2151;WebRecordEnabler,20EE2151;WebUXDataGridView,20DD2151;WebUXEX,20EE2151;WebUserAssistance,20EE0151;WebViewers,20EE2151;WebVisualization,20DD0141;WebVisualizationCommands,20EE2151;WebVisualizationUI,20EE0051;i3DXCompassUI,20DD2151;i3DXRDFBaseUIServices,20DD2151;i3DXUXAssets,20EE2151;
FWCOMPANYNAME=
JSON_CONCAT=YES
BUILD=YES
MOD_Container=Overview.mweb
WS_Concat="E:\users\SCM\ANN19XPORTFOLIO423\." "\\dsone\rnd\R423rel\BSF\." "\\dsone\rnd\R423rel\BSFTST\."
FWmkHLpath=E:\users\SCM\ANN19XPORTFOLIO423\.\ENOXModelApp\IdentityCard\Objects\win_b64\.mkHLpath.mk
MOD_ObjectsPath=E:\users\SCM\ANN19XPORTFOLIO423\.\ENOXModelApp\Overview.mweb\Objects\win_b64
RTViewDataListPath=E:\users\SCM\ANN19XPORTFOLIO423\.\ENOXModelApp\various\win_b64\Overview.mweb\module.data
FWCOPYRIGHT=
TYPELATE=mkWeb
BUILT_OBJECT_TYPE=WEB
TARGETS_MANDATORY=cscimplementjs
FW_INCPATH="E:\users\SCM\ANN19XPORTFOLIO423\.\ENOXModelApp\PrivateInterfaces" "E:\users\SCM\ANN19XPORTFOLIO423\.\ENOXModelApp\PrivateGenerated\win_b64" "E:\users\SCM\ANN19XPORTFOLIO423\.\ENOXModelApp\ProtectedInterfaces" "E:\users\SCM\ANN19XPORTFOLIO423\.\ENOXModelApp\ProtectedGenerated\win_b64" "E:\users\SCM\ANN19XPORTFOLIO423\.\ENOXModelApp\PublicInterfaces" "E:\users\SCM\ANN19XPORTFOLIO423\.\ENOXModelApp\PublicGenerated\win_b64"
MOD_SrcPath=E:\users\SCM\ANN19XPORTFOLIO423\.\ENOXModelApp\Overview.mweb\src
DOC_RTViewDataListPath=E:\users\SCM\ANN19XPORTFOLIO423\.\ENOXModelApp\various\win_b64.doc\Overview.mweb\module.data
MOD_Included=M_Overview
FWPATH=E:\users\SCM\ANN19XPORTFOLIO423\.\ENOXModelApp
MKMK_DEBUG=YES
FWSOURCES=E:\users\SCM\ANN19XPORTFOLIO423\.\ENOXModelApp
STEPS_TO_CLEAN=
MKMK_DEBUGEDITANDCONTINUE=
FWDNAME=ENOXModelApp
MODNAME=Overview
